"Hrvatske зume", d.o.o.                                                                                                                                                             Stranica:      1
GJ:  Mali Kalnik - Orehovec  2011-2020                                                                                                                                              07.06.2011 14:58


                                                                                  PRIHOD PO ODSJECIMA - RAZNODOBNO    
                                                                                            2011 - 2020

Vlasnik:                          

Odsjek  St.  URR     Povrзina      Masa  LU¦NJA KITNJA    CER O.BUKV O.GRAB BAGREM    OTB    OMB  C.BOR                                                                                Ukupno  m3/ha
ДДДДДДДДДДДДДДДДДДДДДДДДДДДДДДДДДДДДДДДДДДДДДДДДДДДДДДДДДДДДДДДДДДДДДДДДДДДДДДДДДДДДДДДДДДДДДДДДДДДДДДДДДДДДДДДДДДДДДДДДДДДДДДДДДДДДДДДДДДДДДДДДДДДДДДДДДДДДДДДДДДДДДДДДДДДДДДДДДДДДДДДДДДДДДДДДДДДД
  1B      0  3C1102     22,43      5587            403           542    105                                                                                                              1050  46,81
  1C      0  111110      8,45      1977            148           219     17     42                                                                                                        426  50,41
  2A      0  3C1110      8,64      1715             52           173     60            26      9                                                                                          320  37,04
  2B      0  3C1102     22,66      3898            290           220    134    103     49                                                                                                 796  35,13
  2C      0  111102      5,35       984            102                   43     11     19                                                                                                 175  32,71
  2D      0  111110      4,94      1224             55           173      3      3                                                                                                        234  47,37
  3A      0  3C1110     27,15      4589            162           552    133                                                                                                               847  31,20
  3B      0  3C1102      7,72      1475            131            47    124             8                                                                                                 310  40,16
  4A      0  3C1102     17,22      4392            447           361     69                                                                                                               877  50,93
  4B      0  111102     11,61      2255            209           171     10                                                                                                               390  33,59
  4C      0  111110      6,96      1802             77           279     42            17                                                                                                 415  59,63
  4E      0  3C1110      1,52       274                     6     46                                                                                                                       52  34,21
  4F      0  3C1110      0,60       128                           21                                                                                                                       21  35,00
  5A      0  3C1102     18,70      4155            405           287     56                                                                                                               748  40,00
  5B      0  3C1110      6,14      1490             67           246     31             6                                                                                                 350  57,00
  5C      0  3C1110      7,02       912                          112     47                                                                                                               159  22,65
  5D      0  111110      5,69      1412             62           211     26                                                                                                               299  52,55
  6A      0  3C1102     12,65      2820            392           159     30            25                                                                                                 606  47,91
  6B      0  3C1110     12,35      2452            173           272     74                                                                                                               519  42,02
  7A      0  3C1102     52,68     12512           1792           316    263                                                                                                              2371  45,01
  8A      0  3C3110     14,45      2773                          390     72            43                                                                                                 505  34,95
  9A      0  3C3110     16,77      2655             50           202    118           117     45                                                                                          532  31,72
  9B      0  3C1102      4,58       616             19            14     74     23                                                                                                        130  28,38
 10A      0  3C1102     15,33      4300            569            30     46            30                                                                                                 675  44,03
 10B      0  3C1127      9,46       922             37                         104      9                                                                                                 150  15,86
 10C      0  3C1102      1,60       188              9                   19             5                                                                                                  33  20,63
 11B      0  111110      9,95      3072            249           299           170                                                                                                        718  72,16
 11C      0  111102      1,26       372             78                   18                                                                                                                96  76,19
 12A      0  111110     28,81      7503            259           735    292    432     29                                                                                                1747  60,64
 12B      0  111102     13,63      3294            259             9     27    511                                                                                                        806  59,13
 12C      0  111102      8,50      2174            286                   60    213      9                                                                                                 568  66,82
 12D      0  111101      4,15      1113      17                          58     20      9    166                                                                                          270  65,06
 13A      0  111102     23,46      6199            821            23    406    187     23     46     48                                                                                  1554  66,24
 13B      0  111116     10,52      2727             11                  184    147     75    158    166                                                                                   741  70,44
 14A      0  111102     18,02      5179            306           504    191    306     18                                                                                                1325  73,53
 14B      0  111127      9,75      2166                                 137    342     30                                                                                                 509  52,21
 14C      0  111102      1,64       589            105             5     19     21      5                                                                                                 155  94,51
 14D      0  111127      5,28      1175             21            16     48    194      5                                                                                                 284  53,79
 15A      0  111110     19,33      5144            135           908     38    135                                                                                                       1216  62,91
 15B      0  111110     11,62      3695            128           511     81    255                                                                                                        975  83,91
 15C      0  111127      3,73       619             26            23     26     78                                                                                                        153  41,02
 16A      0  111102     31,69      8072            619           285    145   1248                                                                                                       2297  72,48
 16B      0  111127     12,67      1753                                        328     76                                                                                                 404  31,89
 16C      0  111110      1,64       184                            8     15      7                                                                                                         30  18,29
 17A      0  111102     39,34     11475            983           787    393   1066     77                                                                                                3306  84,04
 17B      0  111102     18,81      4342            235            38    113    576     19     39                                                                                         1020  54,23
 18A      0  111102     18,68      5659            318           187    261    842                                                                                                       1608  86,08
 18B      0  111110     10,33      2690            144           237     72    231                                                                                                        684  66,21
 18C      0  111110      5,64      1930            288           188     35     12                                                                                                        523  92,73
 18D      0  111116      2,39       688             48            60     97     48                                                                                                        253 105,86
 18E      0  111127      2,70       414                                        121                                                                                                        121  44,81
 19A      0  111102     27,06      6644      27    451           267    494    297     27                                                                                                1563  57,76
 19B      0  111110     18,95      5298            209           398     95    738                                                                                                       1440  75,99
 19C      0  111116      6,67      1024             27             7     80     86     34                                                                                                 234  35,08
 20A      0  111102     22,45      6578            694     67     81    180    446     22                                                                                                1490  66,37"Hrvatske зume", d.o.o.                                                                                                                                                             Stranica:      2
GJ:  Mali Kalnik - Orehovec  2011-2020                                                                                                                                              07.06.2011 14:58


                                                                                  PRIHOD PO ODSJECIMA - RAZNODOBNO    
                                                                                            2011 - 2020

Vlasnik:                          

Odsjek  St.  URR     Povrзina      Masa  LU¦NJA KITNJA    CER O.BUKV O.GRAB BAGREM    OTB    OMB  C.BOR                                                                                Ukupno  m3/ha
ДДДДДДДДДДДДДДДДДДДДДДДДДДДДДДДДДДДДДДДДДДДДДДДДДДДДДДДДДДДДДДДДДДДДДДДДДДДДДДДДДДДДДДДДДДДДДДДДДДДДДДДДДДДДДДДДДДДДДДДДДДДДДДДДДДДДДДДДДДДДДДДДДДДДДДДДДДДДДДДДДДДДДДДДДДДДДДДДДДДДДДДДДДДДДДДДДДДД
 20B      0  111102     17,45      5190     139    698           174    182    175                                                                                                       1368  78,40
 20C      0  111127      4,16      1035                                        379                                                                                                        379  91,11
 20D      0  111101      5,35      1212      30      5                  190     91                                                                                                        316  59,07
 20E      0  111116      2,24       377              2      2            65     14                                                                                                         83  37,05
 21A      0  111102     28,60      7906            601                  452    858                                                                                                       1911  66,82
 22A      0  111102     14,59      4049            525            73    141    567     15                                                                                                1321  90,54
 22B      0  111102     14,01      3794            350            42    233    210     16                                                                                                 851  60,74
 22C      0  111102      8,52      2116            233                  160    226      9     17                                                                                          645  75,70
 22D      0  111127      9,20      1793                                 140    307                                                                                                        447  48,59
 23A      0  111102     30,22      8187            785           307    772    499                                                                                                       2363  78,19
 23B      0  111102      6,57      1700            249            23     46     46                                                                                                        364  55,40
 23C      0  111127      7,99      1783            136             8     56    276             8                                                                                          484  60,58
 24A      0  111102     21,49      6639            623           193    413    561     21                                                                                                1811  84,27
 24B      0  111127      3,95      1085                                 120    162      4                                                                                                 286  72,41
 24C      0  111101      7,15      2351     244    150           100    107     50                                                                                                        651  91,05
 24D      0  111116      2,75       478             23                   54     40      8                                                                                                 125  45,45
 24E      0  111127      2,24       384                                        105                                                                                                        105  46,88
 24F      0  111101      1,63       161                                         18                                                                                                         18  11,04
 25A      0  111102     40,34     10151            642     81    705    798    554                                                                                                       2780  68,91
 25B      0  111101      6,14      1444     221     57             6     95     37                                                                                                        416  67,75
 25C      0  111116     10,75      2822     129                   11    429    119            43                                                                                          731  68,00
 26A      0  111127     28,03      6373     112    203            56    595    913                                                                                                       1879  67,04
 26B      0  111116      9,80      1789      98     29            12    245    122                                                                                                        506  51,63
 26C      0  111116      7,20       916                                 103            28     48                                                                                          179  24,86
 26D      0  111102      6,13      2059            136     18      6     24    311                                                                                                        495  80,75
 26E      0  111102      1,98       654            104                   20     50                                                                                                        174  87,88
 26F      0  111101                 407      48                    6     28     10                                                                                                         92  46,46
 27A      0  111116     17,38      4868            156    139           545    261                                                                                                       1101  63,35
 27B      0  111101     10,91      3052     191            40           332    198                                                                                                        761  69,75
 27C      0  111127      7,82      1713                           96     78    243                                                                                                        417  53,32
 27D      0  111102      4,60      1683      46    123      5      5    226     55                                                                                                        460 100,00
 27E      0  111102      3,86      1265            218                   75      8                                                                                                        301  77,98
 27F      0  111116      2,58       425                                  51     12     23                                                                                                  86  33,33
 27G      0  111116      1,42       194                                  18     22     12                                                                                                  52  36,62
ДДДДДДДДДДДДДДДДДДДДДДДДДДДДДДДДДДДДДДДДДДДДДДДДДДДДДДДДДДДДДДДДДДДДДДДДДДДДДДДДДДДДДДДДДДДДДДДДДДДДДДДДДДДДДДДДДДДДДДДДДДДДДДДДДДДДДДДДДДДДДДДДДДДДДДДДДДДДДДДДДДДДДДДДДДДДДДДДДДДДДДДДДДДДДДДДДДДД
Ukupno:               1060,37    259334    1302  18399    358  12442  11954  16842    948    579    214                                                                                 63038  59,45
"Hrvatske зume", d.o.o.                                                                                                                                                             Stranica:      3
GJ:  Mali Kalnik - Orehovec  2011-2020                                                                                                                                              07.06.2011 14:58


                                                                                  PRIHOD PO ODSJECIMA - RAZNODOBNO    
                                                                                            2011 - 2020

Vlasnik: Privatne зume            

Odsjek  St.  URR     Povrзina      Masa  LU¦NJA KITNJA    CER O.BUKV O.GRAB BAGREM    OTB    OMB  C.BOR                                                                                Ukupno  m3/ha
ДДДДДДДДДДДДДДДДДДДДДДДДДДДДДДДДДДДДДДДДДДДДДДДДДДДДДДДДДДДДДДДДДДДДДДДДДДДДДДДДДДДДДДДДДДДДДДДДДДДДДДДДДДДДДДДДДДДДДДДДДДДДДДДДДДДДДДДДДДДДДДДДДДДДДДДДДДДДДДДДДДДДДДДДДДДДДДДДДДДДДДДДДДДДДДДДДДДД
  1A      0  3C1110     14,72      4169            209           578     32    116            29                                                                                          964  65,49
ДДДДДДДДДДДДДДДДДДДДДДДДДДДДДДДДДДДДДДДДДДДДДДДДДДДДДДДДДДДДДДДДДДДДДДДДДДДДДДДДДДДДДДДДДДДДДДДДДДДДДДДДДДДДДДДДДДДДДДДДДДДДДДДДДДДДДДДДДДДДДДДДДДДДДДДДДДДДДДДДДДДДДДДДДДДДДДДДДДДДДДДДДДДДДДДДДДДД
Ukupno:                 14,72      4169            209           578     32    116            29                                                                                          964  65,49
"Hrvatske зume", d.o.o.                                                                                                                                                               Stranica:    4
GJ Mali Kalnik - Orehovec  god: 2011 - 2020                                                                                                                                           07.06.20 14:58


                                                                                  PRIHOD PO ODSJECIMA - RAZNODOBNO    
                                                                                            2011 - 2020


                     Povrзina      Masa  LU¦NJA KITNJA    CER O.BUKV O.GRAB BAGREM    OTB    OMB  C.BOR                                                                                Ukupno  m3/ha
ДДДДДДДДДДДДДДДДДДДДДДДДДДДДДДДДДДДДДДДДДДДДДДДДДДДДДДДДДДДДДДДДДДДДДДДДДДДДДДДДДДДДДДДДДДДДДДДДДДДДДДДДДДДДДДДДДДДДДДДДДДДДДДДДДДДДДДДДДДДДДДДДДДДДДДДДДДДДДДДДДДДДДДДДДДДДДДДДДДДДДДДДДДДДДДДДДДДД
SVEUKUPNO:            1075,09    263503    1302  18608    358  13020  11986  16958    948    608    214                                                                                 64002  59,53
